Circuit: * Z:\home\sabo\github\rcCar_project\spice_model\Draft1.asc

Limiting rise time of source v3 to 0.04
Limiting fall time of source v3 to 0.04
Limiting rise time of source v2 to 0.04
Limiting fall time of source v2 to 0.04
Direct Newton iteration for .op point succeeded.

Date: Sat Sep 21 23:11:50 2024
Total elapsed time: 0.167 seconds.

tnom = 27
temp = 27
method = modified trap
totiter = 2103
traniter = 2097
tranpoints = 1049
accept = 1042
rejected = 7
matrix size = 10
fillins = 0
solver = Normal
Matrix Compiler1: 346 bytes object code size  0.2/0.2/[0.1]
Matrix Compiler2: 760 bytes object code size  0.2/0.2/[0.2]

