Circuit: * Z:\home\sabo\github\rcCar_project\spice_model\driver.asc

WARNING: Node N002 is floating.
WARNING: Node N003 is floating.
WARNING: Node N010 is floating.
WARNING: Node N011 is floating.

WARNING: Less than two connections to node N005.  This node is used by D1.
WARNING: Less than two connections to node N002.  This node is used by D1.
WARNING: Less than two connections to node N006.  This node is used by D2.
WARNING: Less than two connections to node N003.  This node is used by D2.
WARNING: Less than two connections to node N012.  This node is used by D3.
WARNING: Less than two connections to node N010.  This node is used by D3.
WARNING: Less than two connections to node N013.  This node is used by D4.
WARNING: Less than two connections to node N011.  This node is used by D4.
Direct Newton iteration for .op point succeeded.

Date: Mon Oct 14 22:53:04 2024
Total elapsed time: 0.159 seconds.

tnom = 27
temp = 27
method = modified trap
totiter = 4232
traniter = 4200
tranpoints = 2093
accept = 2078
rejected = 15
matrix size = 18
fillins = 0
solver = Normal
Matrix Compiler1:      45 opcodes  0.2/[0.2]/0.3
Matrix Compiler2: 1.25 KB object code size  0.2/0.3/[0.2]

