Circuit: * Z:\home\sabo\github\rcCar_project\spice_model\driver.asc

WARNING: Node N002 is floating.
WARNING: Node N003 is floating.
WARNING: Node N009 is floating.
WARNING: Node N008 is floating.

WARNING: Less than two connections to node N004.  This node is used by D1.
WARNING: Less than two connections to node N002.  This node is used by D1.
WARNING: Less than two connections to node N005.  This node is used by D2.
WARNING: Less than two connections to node N003.  This node is used by D2.
WARNING: Less than two connections to node N011.  This node is used by D3.
WARNING: Less than two connections to node N009.  This node is used by D3.
WARNING: Less than two connections to node N010.  This node is used by D4.
WARNING: Less than two connections to node N008.  This node is used by D4.
Direct Newton iteration for .op point succeeded.

Date: Tue Sep 24 08:17:00 2024
Total elapsed time: 0.238 seconds.

tnom = 27
temp = 27
method = modified trap
totiter = 4415
traniter = 4383
tranpoints = 2131
accept = 2108
rejected = 23
matrix size = 16
fillins = 0
solver = Normal
Matrix Compiler1: 556 bytes object code size  0.2/0.2/[0.1]
Matrix Compiler2: off  [0.2]/0.3/0.3

